
Circuit: ngspice t2c 

Doing analysis at TEMP = 27.000000 and TNOM = 27.000000


No. of Data Rows : 1
Transient Analysis
Doing analysis at TEMP = 27.000000 and TNOM = 27.000000


Initial Transient Solution
--------------------------

Node                                   Voltage
----                                   -------
n1                                           0
n9                                           0
n2                                           0
n3                                           0
n5                                           0
n6                                     8.74342
n7                                           0
n8                                           0
h1#branch                                    0
v0#branch                                    0
vs#branch                                    0


No. of Data Rows : 212

The file "naturalsim.ps" may be printed on a postscript printer.
naturalsim_FIG
ngspice-31 done
