
Circuit: ngspice t2-1 

Doing analysis at TEMP = 27.000000 and TNOM = 27.000000


No. of Data Rows : 1
t2-1_TAB
@c1[i] = 0.000000e+00
@g1[i] = -2.51245e-04
@r1[i] = -2.40136e-04
@r2[i] = -2.51245e-04
@r3[i] = -1.11090e-05
@r4[i] = 1.216975e-03
@r5[i] = 2.512453e-04
@r6[i] = -9.76838e-04
@r7[i] = -9.76838e-04
h1#branch = -9.76838e-04
n1 = 5.178860e+00
n2 = 4.933049e+00
n3 = 4.408850e+00
n5 = 4.967487e+00
n6 = 5.731699e+00
n7 = -1.99428e+00
n8 = -3.01172e+00
n9 = 0.000000e+00
v0#branch = 9.768382e-04
vs#branch = -2.40136e-04
t2-1_END
ngspice-31 done
