
Circuit: ngspice t2b 

Doing analysis at TEMP = 27.000000 and TNOM = 27.000000


No. of Data Rows : 1
t2-2_TAB
@g1[i] = 0.000000e+00
@r1[i] = 0.000000e+00
@r2[i] = 0.000000e+00
@r3[i] = 0.000000e+00
@r4[i] = 0.000000e+00
@r5[i] = 2.874522e-03
@r6[i] = 0.000000e+00
@r7[i] = 0.000000e+00
h1#branch = 2.874522e-03
n1 = 0.000000e+00
n2 = 0.000000e+00
n3 = 0.000000e+00
n5 = 0.000000e+00
n6 = 8.743422e+00
n7 = 0.000000e+00
n8 = 0.000000e+00
n9 = 0.000000e+00
v0#branch = 0.000000e+00
vs#branch = 0.000000e+00
vx#branch = -2.87452e-03
t2-2_END
ngspice-31 done
